
     RDKit          3D

 14 14  0  0  0  0  0  0  0  0999 V2000
   -3.2251    0.3769   -0.2905 F   0  0  0  0  0  0  0  0  0  0  0  0
   -1.8851    0.2126   -0.1677 C   0  0  0  0  0  0  0  0  0  0  0  0
   -1.2898   -1.0251   -0.0293 C   0  0  0  0  0  0  0  0  0  0  0  0
    0.0621   -1.2016    0.0954 C   0  0  0  0  0  0  0  0  0  0  0  0
    0.9141   -0.0972    0.0865 C   0  0  0  0  0  0  0  0  0  0  0  0
    2.3169   -0.2769    0.2157 N   0  0  0  0  0  0  0  0  0  0  0  0
    0.3349    1.1477   -0.0511 C   0  0  0  0  0  0  0  0  0  0  0  0
   -1.0293    1.2950   -0.1747 C   0  0  0  0  0  0  0  0  0  0  0  0
   -1.9425   -1.8887   -0.0212 H   0  0  0  0  0  0  0  0  0  0  0  0
    0.5361   -2.1667    0.2041 H   0  0  0  0  0  0  0  0  0  0  0  0
    2.9218    0.0673   -0.5529 H   0  0  0  0  0  0  0  0  0  0  0  0
    2.7769   -0.7293    1.0271 H   0  0  0  0  0  0  0  0  0  0  0  0
    1.0002    2.0171   -0.0585 H   0  0  0  0  0  0  0  0  0  0  0  0
   -1.4913    2.2689   -0.2830 H   0  0  0  0  0  0  0  0  0  0  0  0
  1  2  1  0
  2  3  2  0
  3  4  1  0
  4  5  2  0
  5  6  1  0
  5  7  1  0
  7  8  2  0
  8  2  1  0
  3  9  1  0
  4 10  1  0
  6 11  1  0
  6 12  1  0
  7 13  1  0
  8 14  1  0
M  END
$$$$
